@<TRIPOS>MOLECULE
*****
 42 45 0 0 0
SMALL
GASTEIGER

@<TRIPOS>ATOM
      1 C           2.0486    1.1622    2.5454 C.3     1  UNL1       -0.0494
      2 C           2.1362    1.9221    1.2274 C.3     1  UNL1        0.0093
      3 N           3.0544    1.2629    0.2898 N.pl3   1  UNL1       -0.3303
      4 C           2.5382    0.4315   -0.8148 C.3     1  UNL1        0.0093
      5 C           1.0620    0.0733   -0.7734 C.3     1  UNL1       -0.0494
      6 C           4.4276    1.5523    0.3157 C.ar    1  UNL1        0.0333
      7 C           5.0229    2.3239    1.3302 C.ar    1  UNL1        0.0038
      8 C           6.3980    2.5927    1.3496 C.ar    1  UNL1        0.1555
      9 C           7.2424    2.1015    0.3564 C.ar    1  UNL1        0.1069
     10 C           6.6853    1.3409   -0.6601 C.ar    1  UNL1       -0.0309
     11 C           5.3093    1.0725   -0.6753 C.ar    1  UNL1       -0.0384
     12 N           8.6243    2.3347    0.3495 N.ar    1  UNL1       -0.2399
     13 C           9.0997    3.0378    1.3309 C.ar    1  UNL1        0.1147
     14 C          10.5535    3.3131    1.4007 C.ar    1  UNL1        0.0148
     15 C          11.4083    2.8073    0.4101 C.ar    1  UNL1       -0.0518
     16 C          12.7807    3.0560    0.4710 C.ar    1  UNL1       -0.0611
     17 C          13.3063    3.8100    1.5182 C.ar    1  UNL1       -0.0610
     18 C          12.4608    4.3164    2.5063 C.ar    1  UNL1       -0.0503
     19 C          11.0841    4.0679    2.4458 C.ar    1  UNL1        0.0311
     20 C          10.2046    4.6052    3.4983 C.ar    1  UNL1        0.1902
     21 O          10.6425    5.2743    4.4273 O.2     1  UNL1       -0.2871
     22 C           8.7643    4.3170    3.4124 C.ar    1  UNL1        0.0301
     23 C           8.2415    3.5945    2.4190 C.ar    1  UNL1        0.1580
     24 O           6.8738    3.3526    2.3936 O.2     1  UNL1       -0.4516
     25 H           1.3949    1.6952    3.2436 H       1  UNL1        0.0245
     26 H           3.0268    1.0512    3.0229 H       1  UNL1        0.0245
     27 H           1.6396    0.1581    2.3973 H       1  UNL1        0.0245
     28 H           2.4305    2.9631    1.4052 H       1  UNL1        0.0461
     29 H           1.1288    2.0079    0.8108 H       1  UNL1        0.0461
     30 H           3.0857   -0.5197   -0.8270 H       1  UNL1        0.0461
     31 H           2.7250    0.9440   -1.7668 H       1  UNL1        0.0461
     32 H           0.7901   -0.4250    0.1609 H       1  UNL1        0.0245
     33 H           0.8303   -0.6113   -1.5973 H       1  UNL1        0.0245
     34 H           0.4282    0.9550   -0.9065 H       1  UNL1        0.0245
     35 H           4.4351    2.7331    2.1448 H       1  UNL1        0.0674
     36 H           7.3217    0.9469   -1.4476 H       1  UNL1        0.0640
     37 H           4.9536    0.4691   -1.5044 H       1  UNL1        0.0637
     38 H          11.0109    2.2156   -0.4126 H       1  UNL1        0.0624
     39 H          13.4378    2.6593   -0.2998 H       1  UNL1        0.0618
     40 H          14.3752    4.0031    1.5667 H       1  UNL1        0.0618
     41 H          12.8781    4.9038    3.3222 H       1  UNL1        0.0625
     42 H           8.1461    4.7243    4.2048 H       1  UNL1        0.0694
@<TRIPOS>BOND
     1     1     2    1
     2     2     3    1
     3     3     4    1
     4     4     5    1
     5     3     6    1
     6     6     7   ar
     7     7     8   ar
     8     8     9   ar
     9     9    10   ar
    10    10    11   ar
    11     6    11   ar
    12     9    12   ar
    13    12    13   ar
    14    13    14   ar
    15    14    15   ar
    16    15    16   ar
    17    16    17   ar
    18    17    18   ar
    19    18    19   ar
    20    14    19   ar
    21    19    20   ar
    22    20    21    2
    23    20    22   ar
    24    22    23   ar
    25    13    23    1
    26    23    24   ar
    27     8    24   ar
    28     1    25    1
    29     1    26    1
    30     1    27    1
    31     2    28    1
    32     2    29    1
    33     4    30    1
    34     4    31    1
    35     5    32    1
    36     5    33    1
    37     5    34    1
    38     7    35    1
    39    10    36    1
    40    11    37    1
    41    15    38    1
    42    16    39    1
    43    17    40    1
    44    18    41    1
    45    22    42    1
