@<TRIPOS>MOLECULE
*****
 68 72 0 0 0
SMALL
GASTEIGER

@<TRIPOS>ATOM
      1 C           2.2605    1.4330   -2.6513 C.3     1  UNL1       -0.0361
      2 C           1.5458    0.5023   -1.6711 C.3     1  UNL1        0.0861
      3 C           1.9371    0.7309   -0.2025 C.3     1  UNL1        0.0963
      4 C           3.4062    0.3138    0.0217 C.3     1  UNL1        0.0382
      5 C           3.6517   -1.1083   -0.4884 C.3     1  UNL1        0.0161
      6 C           3.1025   -1.3276   -1.8971 C.3     1  UNL1        0.1618
      7 O           1.7539   -0.8799   -2.0010 O.3     1  UNL1       -0.3457
      8 O           3.2110   -2.7362   -2.1729 O.3     1  UNL1       -0.3432
      9 C           2.7508   -3.1884   -3.4627 C.3     1  UNL1        0.0934
     10 C           3.4712   -2.5059   -4.6268 C.3     1  UNL1        0.0141
     11 C           2.6792   -2.5083   -5.9331 C.3     1  UNL1        0.1325
     12 C           1.2514   -1.9753   -5.7097 C.3     1  UNL1        0.0123
     13 C           0.5227   -2.6316   -4.5530 C.ar    1  UNL1        0.0070
     14 C           1.2341   -3.2221   -3.4984 C.ar    1  UNL1        0.0302
     15 C           0.5177   -3.8425   -2.4486 C.ar    1  UNL1        0.1345
     16 C          -0.8877   -3.8178   -2.3833 C.ar    1  UNL1        0.0784
     17 C          -1.5850   -3.1896   -3.4121 C.ar    1  UNL1        0.0782
     18 C          -0.8828   -2.6069   -4.4877 C.ar    1  UNL1        0.1322
     19 O          -1.5313   -1.9710   -5.5177 O.3     1  UNL1       -0.5057
     20 C          -3.0592   -3.1400   -3.3713 C.2     1  UNL1        0.1982
     21 O          -3.6653   -2.5719   -4.2773 O.2     1  UNL1       -0.2865
     22 C          -3.7961   -3.7740   -2.2637 C.ar    1  UNL1        0.0367
     23 C          -3.1188   -4.3871   -1.2105 C.ar    1  UNL1        0.0748
     24 C          -1.6283   -4.3741   -1.2159 C.2     1  UNL1        0.2016
     25 O          -1.0106   -4.7831   -0.2399 O.2     1  UNL1       -0.2864
     26 C          -3.8617   -4.9830   -0.1607 C.ar    1  UNL1        0.1316
     27 C          -5.2626   -4.9432   -0.1960 C.ar    1  UNL1       -0.0192
     28 C          -5.9310   -4.3194   -1.2553 C.ar    1  UNL1       -0.0576
     29 C          -5.2003   -3.7417   -2.2854 C.ar    1  UNL1       -0.0500
     30 O          -3.1652   -5.5880    0.8495 O.3     1  UNL1       -0.4944
     31 C          -3.8675   -6.1759    1.9331 C.3     1  UNL1        0.0788
     32 O           1.2348   -4.5037   -1.4832 O.3     1  UNL1       -0.5057
     33 C           3.3901   -1.5603   -6.9323 C.2     1  UNL1        0.1900
     34 O           4.0365   -0.5734   -6.5577 O.2     1  UNL1       -0.2919
     35 C           3.1781   -1.8050   -8.4224 C.3     1  UNL1        0.1051
     36 O           3.9301   -0.8979   -9.2223 O.3     1  UNL1       -0.3874
     37 O           2.6469   -3.8348   -6.4576 O.3     1  UNL1       -0.3806
     38 N           3.8012    0.3704    1.4379 N.3     1  UNL1       -0.3249
     39 O           1.0829   -0.0574    0.6446 O.3     1  UNL1       -0.3877
     40 H           2.0567    2.4820   -2.4194 H       1  UNL1        0.0255
     41 H           1.9372    1.2250   -3.6765 H       1  UNL1        0.0255
     42 H           3.3468    1.3016   -2.6433 H       1  UNL1        0.0255
     43 H           0.4655    0.6689   -1.7747 H       1  UNL1        0.0620
     44 H           1.7813    1.7786    0.0785 H       1  UNL1        0.0635
     45 H           4.0557    1.0078   -0.5240 H       1  UNL1        0.0486
     46 H           3.1925   -1.8395    0.1893 H       1  UNL1        0.0330
     47 H           4.7268   -1.3298   -0.4878 H       1  UNL1        0.0330
     48 H           3.7354   -0.7771   -2.5922 H       1  UNL1        0.0910
     49 H           3.0503   -4.2452   -3.5111 H       1  UNL1        0.0649
     50 H           4.4350   -3.0157   -4.7693 H       1  UNL1        0.0326
     51 H           3.7391   -1.4799   -4.3769 H       1  UNL1        0.0326
     52 H           0.6788   -2.1419   -6.6303 H       1  UNL1        0.0347
     53 H           1.2735   -0.8941   -5.5190 H       1  UNL1        0.0347
     54 H          -2.5011   -2.0075   -5.3461 H       1  UNL1        0.2922
     55 H          -5.8659   -5.3876    0.5898 H       1  UNL1        0.0654
     56 H          -7.0164   -4.2986   -1.2695 H       1  UNL1        0.0619
     57 H          -5.7291   -3.2603   -3.1056 H       1  UNL1        0.0625
     58 H          -3.1267   -6.5757    2.6327 H       1  UNL1        0.0660
     59 H          -4.4865   -7.0113    1.5919 H       1  UNL1        0.0660
     60 H          -4.4639   -5.4321    2.4715 H       1  UNL1        0.0660
     61 H           2.0996   -4.0659   -1.3653 H       1  UNL1        0.2922
     62 H           2.1214   -1.6638   -8.6588 H       1  UNL1        0.0637
     63 H           3.4931   -2.8173   -8.6830 H       1  UNL1        0.0637
     64 H           3.9883   -0.0627   -8.7181 H       1  UNL1        0.2100
     65 H           2.0953   -4.3921   -5.8780 H       1  UNL1        0.2108
     66 H           3.1271   -0.1897    1.9695 H       1  UNL1        0.1186
     67 H           3.6716    1.3176    1.7930 H       1  UNL1        0.1186
     68 H           1.0040   -0.9414    0.2349 H       1  UNL1        0.2100
@<TRIPOS>BOND
     1     1     2    1
     2     2     3    1
     3     3     4    1
     4     4     5    1
     5     5     6    1
     6     6     7    1
     7     2     7    1
     8     6     8    1
     9     8     9    1
    10     9    10    1
    11    10    11    1
    12    11    12    1
    13    12    13    1
    14    13    14   ar
    15     9    14    1
    16    14    15   ar
    17    15    16   ar
    18    16    17   ar
    19    17    18   ar
    20    13    18   ar
    21    18    19    1
    22    17    20    1
    23    20    21    2
    24    20    22    1
    25    22    23   ar
    26    23    24    1
    27    16    24    1
    28    24    25    2
    29    23    26   ar
    30    26    27   ar
    31    27    28   ar
    32    28    29   ar
    33    22    29   ar
    34    26    30    1
    35    30    31    1
    36    15    32    1
    37    11    33    1
    38    33    34    2
    39    33    35    1
    40    35    36    1
    41    11    37    1
    42     4    38    1
    43     3    39    1
    44     1    40    1
    45     1    41    1
    46     1    42    1
    47     2    43    1
    48     3    44    1
    49     4    45    1
    50     5    46    1
    51     5    47    1
    52     6    48    1
    53     9    49    1
    54    10    50    1
    55    10    51    1
    56    12    52    1
    57    12    53    1
    58    19    54    1
    59    27    55    1
    60    28    56    1
    61    29    57    1
    62    31    58    1
    63    31    59    1
    64    31    60    1
    65    32    61    1
    66    35    62    1
    67    35    63    1
    68    36    64    1
    69    37    65    1
    70    38    66    1
    71    38    67    1
    72    39    68    1
