@<TRIPOS>MOLECULE
*****
 21 21 0 0 0
SMALL
GASTEIGER

@<TRIPOS>ATOM
      1 C           1.0505    0.0616    0.9844 C.3     1  UNL1        0.0336
      2 C           2.4941    0.3224    1.2963 C.2     1  UNL1        0.3092
      3 O           2.8957    1.2671    1.9588 O.2     1  UNL1       -0.2507
      4 O           3.2735   -0.6901    0.7241 O.3     1  UNL1       -0.4252
      5 C           4.6759   -0.6685    0.8947 C.ar    1  UNL1        0.1456
      6 C           5.3980    0.5174    0.7278 C.ar    1  UNL1       -0.0184
      7 C           6.7838    0.5175    0.8925 C.ar    1  UNL1       -0.0582
      8 C           7.4529   -0.6645    1.2025 C.ar    1  UNL1       -0.0608
      9 C           6.7383   -1.8564    1.3352 C.ar    1  UNL1       -0.0442
     10 C           5.3459   -1.8716    1.1656 C.ar    1  UNL1        0.1010
     11 C           4.6670   -3.1867    1.3019 C.2     1  UNL1        0.3404
     12 O           5.0895   -4.0759    2.0198 O.2     1  UNL1       -0.2450
     13 O           3.5940   -3.3433    0.4978 O.3     1  UNL1       -0.4770
     14 H           0.4520    0.9187    1.3073 H       1  UNL1        0.0342
     15 H           0.7122   -0.8285    1.5199 H       1  UNL1        0.0342
     16 H           0.9163   -0.0606   -0.0934 H       1  UNL1        0.0342
     17 H           4.8989    1.4525    0.4867 H       1  UNL1        0.0654
     18 H           7.3407    1.4461    0.7873 H       1  UNL1        0.0619
     19 H           8.5321   -0.6603    1.3390 H       1  UNL1        0.0618
     20 H           7.2717   -2.7767    1.5688 H       1  UNL1        0.0627
     21 H           3.4060   -2.5706   -0.0676 H       1  UNL1        0.2954
@<TRIPOS>BOND
     1     1     2    1
     2     2     3    2
     3     2     4    1
     4     4     5    1
     5     5     6   ar
     6     6     7   ar
     7     7     8   ar
     8     8     9   ar
     9     9    10   ar
    10     5    10   ar
    11    10    11    1
    12    11    12    2
    13    11    13    1
    14     1    14    1
    15     1    15    1
    16     1    16    1
    17     6    17    1
    18     7    18    1
    19     8    19    1
    20     9    20    1
    21    13    21    1
