@<TRIPOS>MOLECULE
*****
 26 29 0 0 0
SMALL
GASTEIGER

@<TRIPOS>ATOM
      1 C          -3.5112   -0.0388    0.0059 C.ar    1  UNL1       -0.0606
      2 C          -2.8278    1.1769    0.0071 C.ar    1  UNL1       -0.0540
      3 C          -1.4253    1.2086    0.0007 C.ar    1  UNL1       -0.0167
      4 C          -0.7056   -0.0089   -0.0024 C.ar    1  UNL1       -0.0025
      5 C          -1.3997   -1.2410   -0.0034 C.ar    1  UNL1       -0.0167
      6 C          -2.8023   -1.2395   -0.0011 C.ar    1  UNL1       -0.0540
      7 C          -0.6708   -2.4379   -0.0061 C.ar    1  UNL1       -0.0534
      8 C           0.7263   -2.4235   -0.0057 C.ar    1  UNL1       -0.0534
      9 C           1.4306   -1.2120   -0.0039 C.ar    1  UNL1       -0.0167
     10 C           2.8327   -1.1816   -0.0021 C.ar    1  UNL1       -0.0540
     11 C           3.5168    0.0335    0.0001 C.ar    1  UNL1       -0.0606
     12 C           2.8086    1.2349   -0.0010 C.ar    1  UNL1       -0.0540
     13 C           1.4059    1.2378   -0.0034 C.ar    1  UNL1       -0.0167
     14 C           0.7113    0.0058   -0.0033 C.ar    1  UNL1       -0.0025
     15 C           0.6766    2.4346   -0.0052 C.ar    1  UNL1       -0.0534
     16 C          -0.7208    2.4201   -0.0028 C.ar    1  UNL1       -0.0534
     17 H          -4.5980   -0.0506    0.0104 H       1  UNL1        0.0618
     18 H          -3.3996    2.1021    0.0136 H       1  UNL1        0.0624
     19 H          -3.3540   -2.1769   -0.0036 H       1  UNL1        0.0624
     20 H          -1.1857   -3.3960   -0.0073 H       1  UNL1        0.0624
     21 H           1.2607   -3.3708   -0.0067 H       1  UNL1        0.0624
     22 H           3.4036   -2.1073   -0.0017 H       1  UNL1        0.0624
     23 H           4.6037    0.0441    0.0027 H       1  UNL1        0.0618
     24 H           3.3613    2.1716    0.0009 H       1  UNL1        0.0624
     25 H           1.1915    3.3927   -0.0083 H       1  UNL1        0.0624
     26 H          -1.2553    3.3676   -0.0042 H       1  UNL1        0.0624
@<TRIPOS>BOND
     1     1     2   ar
     2     2     3   ar
     3     3     4   ar
     4     4     5   ar
     5     5     6   ar
     6     1     6   ar
     7     5     7   ar
     8     7     8   ar
     9     8     9   ar
    10     9    10   ar
    11    10    11   ar
    12    11    12   ar
    13    12    13   ar
    14    13    14   ar
    15     9    14   ar
    16     4    14   ar
    17    13    15   ar
    18    15    16   ar
    19     3    16   ar
    20     1    17    1
    21     2    18    1
    22     6    19    1
    23     7    20    1
    24     8    21    1
    25    10    22    1
    26    11    23    1
    27    12    24    1
    28    15    25    1
    29    16    26    1
