@<TRIPOS>MOLECULE
*****
 69 73 0 0 0
SMALL
GASTEIGER

@<TRIPOS>ATOM
      1 C           2.6511   -7.0796   -3.3348 C.3     1  UNL1       -0.0359
      2 C           2.3186   -5.6905   -2.8031 C.3     1  UNL1        0.0900
      3 C           2.9148   -5.4518   -1.4057 C.3     1  UNL1        0.1234
      4 C           2.6432   -4.0038   -0.9986 C.3     1  UNL1        0.0093
      5 C           3.2361   -3.0428   -2.0269 C.3     1  UNL1        0.0439
      6 C           2.5831   -3.3610   -3.3660 C.3     1  UNL1        0.1655
      7 O           2.8542   -4.7241   -3.7108 O.3     1  UNL1       -0.3454
      8 O           1.1795   -3.1080   -3.2933 O.3     1  UNL1       -0.3431
      9 C           0.7900   -1.7418   -3.0852 C.3     1  UNL1        0.0934
     10 C           1.3344   -0.7990   -4.1457 C.3     1  UNL1        0.0141
     11 C           0.6260   -1.0582   -5.4769 C.3     1  UNL1        0.1325
     12 C          -0.8297   -0.6054   -5.3096 C.3     1  UNL1        0.0123
     13 C          -1.4918   -1.1726   -4.0553 C.ar    1  UNL1        0.0070
     14 C          -0.7282   -1.7289   -3.0074 C.ar    1  UNL1        0.0302
     15 C          -1.4110   -2.3001   -1.9097 C.ar    1  UNL1        0.1345
     16 C          -2.8124   -2.2715   -1.7912 C.ar    1  UNL1        0.0784
     17 C          -3.5473   -1.6596   -2.8031 C.ar    1  UNL1        0.0782
     18 C          -2.8794   -1.1203   -3.9203 C.ar    1  UNL1        0.1322
     19 O          -3.5677   -0.4989   -4.9422 O.3     1  UNL1       -0.5057
     20 C          -5.0073   -1.5867   -2.6963 C.2     1  UNL1        0.1982
     21 O          -5.6416   -1.0423   -3.6016 O.2     1  UNL1       -0.2865
     22 C          -5.7017   -2.1466   -1.5263 C.ar    1  UNL1        0.0367
     23 C          -7.0978   -2.0440   -1.4738 C.ar    1  UNL1       -0.0500
     24 C          -7.7895   -2.5569   -0.3832 C.ar    1  UNL1       -0.0576
     25 C          -7.0911   -3.1673    0.6580 C.ar    1  UNL1       -0.0192
     26 C          -5.6934   -3.2772    0.6198 C.ar    1  UNL1        0.1316
     27 C          -4.9914   -2.7596   -0.4950 C.ar    1  UNL1        0.0748
     28 C          -3.5064   -2.8457   -0.6021 C.2     1  UNL1        0.2016
     29 O          -2.8460   -3.3726    0.2854 O.2     1  UNL1       -0.2864
     30 O          -4.9649   -3.8574    1.6196 O.3     1  UNL1       -0.4944
     31 C          -5.6420   -4.3876    2.7495 C.3     1  UNL1        0.0788
     32 O          -0.6843   -2.9298   -0.9355 O.3     1  UNL1       -0.5057
     33 C           1.3384   -0.2793   -6.5832 C.2     1  UNL1        0.1900
     34 O           1.9681    0.7565   -6.3456 O.2     1  UNL1       -0.2919
     35 C           1.2070   -0.8167   -8.0061 C.3     1  UNL1        0.1051
     36 O           1.9860   -0.0777   -8.9329 O.3     1  UNL1       -0.3874
     37 O           0.6954   -2.4420   -5.8335 O.3     1  UNL1       -0.3806
     38 N           3.2663   -3.7251    0.3269 N.4     1  UNL1        0.2228
     39 O           4.3435   -5.6043   -1.3716 O.3     1  UNL1       -0.3836
     40 H           2.2550   -7.8561   -2.6732 H       1  UNL1        0.0255
     41 H           3.7310   -7.2256   -3.4404 H       1  UNL1        0.0255
     42 H           2.2211   -7.2206   -4.3325 H       1  UNL1        0.0255
     43 H           1.2266   -5.5859   -2.7797 H       1  UNL1        0.0622
     44 H           2.4853   -6.1483   -0.6785 H       1  UNL1        0.0676
     45 H           1.5745   -3.8602   -0.8618 H       1  UNL1        0.0878
     46 H           4.3219   -3.1717   -2.1075 H       1  UNL1        0.0370
     47 H           3.0714   -2.0041   -1.7265 H       1  UNL1        0.0370
     48 H           3.0387   -2.7811   -4.1710 H       1  UNL1        0.0912
     49 H           1.1635   -1.3881   -2.1199 H       1  UNL1        0.0649
     50 H           2.4184   -0.8953   -4.2529 H       1  UNL1        0.0326
     51 H           1.1688    0.2416   -3.8260 H       1  UNL1        0.0326
     52 H          -1.4021   -0.9185   -6.1914 H       1  UNL1        0.0347
     53 H          -0.8732    0.4907   -5.2419 H       1  UNL1        0.0347
     54 H          -4.5263   -0.5159   -4.7444 H       1  UNL1        0.2922
     55 H          -7.6528   -1.5664   -2.2803 H       1  UNL1        0.0625
     56 H          -8.8746   -2.4822   -0.3420 H       1  UNL1        0.0619
     57 H          -7.6713   -3.5531    1.4913 H       1  UNL1        0.0654
     58 H          -4.8873   -4.8063    3.4225 H       1  UNL1        0.0660
     59 H          -6.3158   -5.1997    2.4593 H       1  UNL1        0.0660
     60 H          -6.1740   -3.6017    3.2947 H       1  UNL1        0.0660
     61 H           0.1686   -2.5009   -0.8605 H       1  UNL1        0.2922
     62 H           0.1579   -0.7676   -8.3066 H       1  UNL1        0.0637
     63 H           1.5550   -1.8525   -8.0431 H       1  UNL1        0.0637
     64 H           1.9944    0.8469   -8.6214 H       1  UNL1        0.2100
     65 H           0.2372   -2.9860   -5.1680 H       1  UNL1        0.2108
     66 H           4.2702   -3.9633    0.2759 H       1  UNL1        0.1998
     67 H           2.8674   -4.3301    1.0575 H       1  UNL1        0.1998
     68 H           3.1664   -2.7510    0.6365 H       1  UNL1        0.1998
     69 H           4.6706   -5.5547   -2.2962 H       1  UNL1        0.2102
@<TRIPOS>UNITY_ATOM_ATTR
38 1
charge 1
@<TRIPOS>BOND
     1     2     3    1
     2     3     4    1
     3     4     5    1
     4     5     6    1
     5     6     7    1
     6     2     7    1
     7     9    10    1
     8    10    11    1
     9    11    12    1
    10    12    13    1
    11    13    14   ar
    12     9    14    1
    13    14    15   ar
    14    15    16   ar
    15    16    17   ar
    16    17    18   ar
    17    13    18   ar
    18    18    19    1
    19    17    20    1
    20    20    21    2
    21    20    22    1
    22    22    23   ar
    23    23    24   ar
    24    24    25   ar
    25    25    26   ar
    26    26    27   ar
    27    22    27   ar
    28    27    28    1
    29    16    28    1
    30    28    29    2
    31    26    30    1
    32    30    31    1
    33    15    32    1
    34    11    33    1
    35    33    34    2
    36    33    35    1
    37    35    36    1
    38    11    37    1
    39     4    38    1
    40     3    39    1
    41     2     1    1
    42     6     8    1
    43     9     8    1
    44     1    40    1
    45     1    41    1
    46     1    42    1
    47     2    43    1
    48     3    44    1
    49     4    45    1
    50     5    46    1
    51     5    47    1
    52     6    48    1
    53     9    49    1
    54    10    50    1
    55    10    51    1
    56    12    52    1
    57    12    53    1
    58    19    54    1
    59    23    55    1
    60    24    56    1
    61    25    57    1
    62    31    58    1
    63    31    59    1
    64    31    60    1
    65    32    61    1
    66    35    62    1
    67    35    63    1
    68    36    64    1
    69    37    65    1
    70    38    66    1
    71    38    67    1
    72    38    68    1
    73    39    69    1
