@<TRIPOS>MOLECULE
*****
 29 30 0 0 0
SMALL
GASTEIGER

@<TRIPOS>ATOM
      1 C          -1.1532   -1.0652    0.5825 C.ar    1  UNL1       -0.0511
      2 C           0.2458   -1.0688    0.5744 C.ar    1  UNL1       -0.0196
      3 C           0.9301   -0.0244   -0.0366 C.ar    1  UNL1        0.1169
      4 C           0.2407    1.0236   -0.6312 C.ar    1  UNL1       -0.0196
      5 C          -1.1560    1.0245   -0.6231 C.ar    1  UNL1       -0.0511
      6 C          -1.8695   -0.0270   -0.0295 C.ar    1  UNL1       -0.0248
      7 C          -3.3396    0.0359   -0.0274 C.2     1  UNL1       -0.0540
      8 C          -4.1517   -1.0346   -0.0578 C.2     1  UNL1       -0.0538
      9 C          -5.6223   -0.9595   -0.0873 C.ar    1  UNL1       -0.0181
     10 C          -6.3092    0.1009   -0.6984 C.ar    1  UNL1       -0.0128
     11 C          -7.7031    0.1064   -0.7283 C.ar    1  UNL1        0.1209
     12 C          -8.4372   -0.9339   -0.1730 C.ar    1  UNL1        0.0213
     13 C          -7.7574   -1.9932    0.4141 C.ar    1  UNL1        0.1209
     14 C          -6.3647   -2.0162    0.4582 C.ar    1  UNL1       -0.0128
     15 O          -8.4272   -3.0477    0.9633 O.3     1  UNL1       -0.5066
     16 O          -8.3946    1.1291   -1.3102 O.3     1  UNL1       -0.5066
     17 O           2.2926    0.0112   -0.0699 O.3     1  UNL1       -0.5068
     18 H          -1.6730   -1.8785    1.0820 H       1  UNL1        0.0625
     19 H           0.7758   -1.8868    1.0523 H       1  UNL1        0.0654
     20 H           0.7859    1.8376   -1.0998 H       1  UNL1        0.0654
     21 H          -1.6803    1.8525   -1.0945 H       1  UNL1        0.0625
     22 H          -3.7509    1.0416   -0.0161 H       1  UNL1        0.0624
     23 H          -3.7410   -2.0416   -0.0663 H       1  UNL1        0.0624
     24 H          -5.7570    0.9122   -1.1617 H       1  UNL1        0.0660
     25 H          -9.5204   -0.9032   -0.2135 H       1  UNL1        0.0691
     26 H          -5.8681   -2.8627    0.9248 H       1  UNL1        0.0660
     27 H          -9.3810   -2.8977    0.8519 H       1  UNL1        0.2921
     28 H          -7.7589    1.7781   -1.6555 H       1  UNL1        0.2921
     29 H           2.6330   -0.7874    0.3650 H       1  UNL1        0.2921
@<TRIPOS>BOND
     1     1     2   ar
     2     2     3   ar
     3     3     4   ar
     4     4     5   ar
     5     5     6   ar
     6     1     6   ar
     7     6     7    1
     8     7     8    2
     9     8     9    1
    10     9    10   ar
    11    10    11   ar
    12    11    12   ar
    13    12    13   ar
    14    13    14   ar
    15     9    14   ar
    16    13    15    1
    17    11    16    1
    18     3    17    1
    19     1    18    1
    20     2    19    1
    21     4    20    1
    22     5    21    1
    23     7    22    1
    24     8    23    1
    25    10    24    1
    26    12    25    1
    27    14    26    1
    28    15    27    1
    29    16    28    1
    30    17    29    1
