@<TRIPOS>MOLECULE
*****
 32 34 0 0 0
SMALL
GASTEIGER

@<TRIPOS>ATOM
      1 C          -1.9238    0.5789    0.6187 C.ar    1  UNL1       -0.0473
      2 C          -0.7133    1.2788    0.6633 C.ar    1  UNL1       -0.0159
      3 C           0.4163    0.7095    0.0906 C.ar    1  UNL1        0.1583
      4 C           0.3451   -0.5462   -0.5084 C.ar    1  UNL1        0.1589
      5 C          -0.8511   -1.2505   -0.5567 C.ar    1  UNL1       -0.0057
      6 C          -2.0013   -0.6835    0.0042 C.ar    1  UNL1        0.0247
      7 C          -3.2999   -1.3624   -0.1068 C.ar    1  UNL1        0.1807
      8 C          -4.1216   -1.1454   -1.1541 C.ar    1  UNL1        0.2082
      9 C          -5.4427   -1.8282   -1.1494 C.ar    1  UNL1        0.2379
     10 O          -6.2645   -1.7020   -2.0530 O.2     1  UNL1       -0.2830
     11 C          -5.7572   -2.6735    0.0079 C.ar    1  UNL1        0.1092
     12 C          -6.9925   -3.3241    0.1238 C.ar    1  UNL1        0.1348
     13 C          -7.2708   -4.1149    1.2353 C.ar    1  UNL1        0.0223
     14 C          -6.3026   -4.2547    2.2252 C.ar    1  UNL1        0.1239
     15 C          -5.0691   -3.6157    2.1200 C.ar    1  UNL1        0.0231
     16 C          -4.7994   -2.8161    1.0086 C.ar    1  UNL1        0.1465
     17 O          -3.5792   -2.1894    0.9673 O.2     1  UNL1       -0.4507
     18 O          -6.5304   -5.0166    3.3330 O.3     1  UNL1       -0.5065
     19 O          -7.9812   -3.2221   -0.8184 O.3     1  UNL1       -0.5058
     20 O          -3.8319   -0.3192   -2.2256 O.3     1  UNL1       -0.5007
     21 O           1.4618   -1.0932   -1.0732 O.3     1  UNL1       -0.5033
     22 O           1.6240    1.3496    0.0815 O.3     1  UNL1       -0.5033
     23 H          -2.8130    1.0280    1.0590 H       1  UNL1        0.0626
     24 H          -0.6784    2.2545    1.1374 H       1  UNL1        0.0655
     25 H          -0.8799   -2.2252   -1.0370 H       1  UNL1        0.0662
     26 H          -8.2359   -4.6062    1.3091 H       1  UNL1        0.0691
     27 H          -4.3272   -3.7386    2.9043 H       1  UNL1        0.0691
     28 H          -7.4277   -5.3882    3.2788 H       1  UNL1        0.2921
     29 H          -7.6512   -2.6459   -1.5467 H       1  UNL1        0.2922
     30 H          -2.9169   -0.0016   -2.1504 H       1  UNL1        0.2924
     31 H           2.1682   -0.4352   -0.9162 H       1  UNL1        0.2923
     32 H           1.5173    2.2141    0.5151 H       1  UNL1        0.2923
@<TRIPOS>BOND
     1     1     2   ar
     2     2     3   ar
     3     3     4   ar
     4     4     5   ar
     5     5     6   ar
     6     1     6   ar
     7     6     7    1
     8     7     8   ar
     9     8     9   ar
    10     9    10    2
    11     9    11   ar
    12    11    12   ar
    13    12    13   ar
    14    13    14   ar
    15    14    15   ar
    16    15    16   ar
    17    11    16   ar
    18    16    17   ar
    19     7    17   ar
    20    14    18    1
    21    12    19    1
    22     8    20    1
    23     4    21    1
    24     3    22    1
    25     1    23    1
    26     2    24    1
    27     5    25    1
    28    13    26    1
    29    15    27    1
    30    18    28    1
    31    19    29    1
    32    20    30    1
    33    21    31    1
    34    22    32    1
