@<TRIPOS>MOLECULE
*****
 33 33 0 0 0
SMALL
GASTEIGER

@<TRIPOS>ATOM
      1 C           2.9810    1.1697   -2.5411 C.3     1  UNL1       -0.0624
      2 C           2.4443    1.8200   -1.2631 C.3     1  UNL1       -0.0427
      3 C           0.9154    1.7382   -1.2570 C.3     1  UNL1       -0.0624
      4 C           3.0225    1.1662    0.0110 C.3     1  UNL1       -0.0253
      5 C           4.5268    1.2756    0.1342 C.ar    1  UNL1       -0.0471
      6 C           5.1604    2.5234    0.1933 C.ar    1  UNL1       -0.0583
      7 C           6.5550    2.6148    0.2541 C.ar    1  UNL1       -0.0575
      8 C           7.3466    1.4583    0.2659 C.ar    1  UNL1       -0.0339
      9 C           6.7089    0.2101    0.2485 C.ar    1  UNL1       -0.0575
     10 C           5.3149    0.1211    0.1855 C.ar    1  UNL1       -0.0583
     11 C           8.8662    1.5646    0.2550 C.3     1  UNL1        0.0784
     12 C           9.4657    0.9176    1.5076 C.3     1  UNL1       -0.0482
     13 C           9.5205    0.9897   -1.0032 C.2     1  UNL1        0.3119
     14 O          10.6454    0.5070   -1.0266 O.2     1  UNL1       -0.2503
     15 O           8.7977    1.1212   -2.1399 O.3     1  UNL1       -0.4802
     16 H           2.5793    1.6746   -3.4264 H       1  UNL1        0.0232
     17 H           2.6981    0.1131   -2.5979 H       1  UNL1        0.0232
     18 H           4.0722    1.2327   -2.5987 H       1  UNL1        0.0232
     19 H           2.7192    2.8820   -1.2801 H       1  UNL1        0.0299
     20 H           0.5705    0.7015   -1.3318 H       1  UNL1        0.0232
     21 H           0.4974    2.2927   -2.1047 H       1  UNL1        0.0232
     22 H           0.4999    2.1697   -0.3400 H       1  UNL1        0.0232
     23 H           2.7232    0.1101    0.0415 H       1  UNL1        0.0316
     24 H           2.5790    1.6308    0.9015 H       1  UNL1        0.0316
     25 H           4.5698    3.4379    0.1831 H       1  UNL1        0.0620
     26 H           7.0120    3.6030    0.2849 H       1  UNL1        0.0621
     27 H           7.2882   -0.7111    0.2664 H       1  UNL1        0.0621
     28 H           4.8516   -0.8640    0.1674 H       1  UNL1        0.0620
     29 H           9.1458    2.6265    0.2658 H       1  UNL1        0.0459
     30 H           9.2568   -0.1571    1.5515 H       1  UNL1        0.0241
     31 H           9.0666    1.3774    2.4186 H       1  UNL1        0.0241
     32 H          10.5551    1.0328    1.5252 H       1  UNL1        0.0241
     33 H           7.9113    1.5097   -2.0124 H       1  UNL1        0.2951
@<TRIPOS>BOND
     1     1     2    1
     2     2     3    1
     3     2     4    1
     4     4     5    1
     5     5     6   ar
     6     6     7   ar
     7     7     8   ar
     8     8     9   ar
     9     9    10   ar
    10     5    10   ar
    11     8    11    1
    12    11    12    1
    13    11    13    1
    14    13    14    2
    15    13    15    1
    16     1    16    1
    17     1    17    1
    18     1    18    1
    19     2    19    1
    20     3    20    1
    21     3    21    1
    22     3    22    1
    23     4    23    1
    24     4    24    1
    25     6    25    1
    26     7    26    1
    27     9    27    1
    28    10    28    1
    29    11    29    1
    30    12    30    1
    31    12    31    1
    32    12    32    1
    33    15    33    1
