@<TRIPOS>MOLECULE
*****
 47 48 0 0 0
SMALL
GASTEIGER

@<TRIPOS>ATOM
      1 C           5.7900   -3.2364   -4.8527 C.3     1  UNL1        0.0790
      2 O           6.0362   -2.2088   -3.9140 O.3     1  UNL1       -0.4914
      3 C           7.2618   -1.6219   -3.8027 C.ar    1  UNL1        0.1618
      4 C           8.4517   -1.8551   -4.4956 C.ar    1  UNL1        0.1585
      5 C           9.6018   -1.1226   -4.1835 C.ar    1  UNL1       -0.0160
      6 C           9.5873   -0.1491   -3.1845 C.ar    1  UNL1       -0.0509
      7 C           8.4117    0.1140   -2.4779 C.ar    1  UNL1       -0.0212
      8 C           7.2693   -0.6377   -2.7905 C.ar    1  UNL1       -0.0092
      9 C           8.3546    1.0908   -1.3812 C.2     1  UNL1       -0.0512
     10 C           9.0916    2.2112   -1.3271 C.2     1  UNL1       -0.0182
     11 C           8.9849    3.1280   -0.1541 C.2     1  UNL1        0.1635
     12 O           8.2452    2.8761    0.7922 O.2     1  UNL1       -0.2922
     13 C           9.8165    4.3814   -0.1792 C.3     1  UNL1        0.0724
     14 C          11.2957    4.1204   -0.2403 C.2     1  UNL1        0.1635
     15 O          11.9556    4.4545   -1.2250 O.2     1  UNL1       -0.2922
     16 C          11.9297    3.4417    0.9282 C.2     1  UNL1       -0.0182
     17 C          13.2534    3.2203    0.9210 C.2     1  UNL1       -0.0512
     18 C          14.0178    2.5800    2.0017 C.ar    1  UNL1       -0.0212
     19 C          13.4840    1.5899    2.8390 C.ar    1  UNL1       -0.0092
     20 C          14.2461    0.9676    3.8492 C.ar    1  UNL1        0.1618
     21 C          15.5777    1.3604    4.0076 C.ar    1  UNL1        0.1585
     22 C          16.1254    2.3343    3.1668 C.ar    1  UNL1       -0.0160
     23 C          15.3581    2.9318    2.1668 C.ar    1  UNL1       -0.0509
     24 O          16.4606    0.8906    4.9356 O.3     1  UNL1       -0.5033
     25 O          13.5035    0.0492    4.5336 O.3     1  UNL1       -0.4914
     26 C          14.0437   -0.6848    5.6135 C.3     1  UNL1        0.0790
     27 O           8.6537   -2.7717   -5.4857 O.3     1  UNL1       -0.5033
     28 H           4.7622   -3.5843   -4.7058 H       1  UNL1        0.0660
     29 H           6.4508   -4.0937   -4.6941 H       1  UNL1        0.0660
     30 H           5.8505   -2.8508   -5.8749 H       1  UNL1        0.0660
     31 H          10.5251   -1.3165   -4.7250 H       1  UNL1        0.0655
     32 H          10.5102    0.3787   -2.9615 H       1  UNL1        0.0625
     33 H           6.3465   -0.4637   -2.2372 H       1  UNL1        0.0661
     34 H           7.6525    0.8606   -0.5800 H       1  UNL1        0.0625
     35 H           9.7817    2.4957   -2.1134 H       1  UNL1        0.0653
     36 H           9.6012    4.9849    0.7100 H       1  UNL1        0.0426
     37 H           9.5164    4.9828   -1.0456 H       1  UNL1        0.0426
     38 H          11.2873    3.1630    1.7553 H       1  UNL1        0.0653
     39 H          13.8487    3.5518    0.0697 H       1  UNL1        0.0625
     40 H          12.4504    1.2722    2.7143 H       1  UNL1        0.0661
     41 H          17.1665    2.6260    3.2880 H       1  UNL1        0.0655
     42 H          15.8204    3.6805    1.5273 H       1  UNL1        0.0625
     43 H          16.1950    0.0112    5.2255 H       1  UNL1        0.2923
     44 H          13.2361   -1.2851    6.0450 H       1  UNL1        0.0660
     45 H          14.4203   -0.0269    6.4019 H       1  UNL1        0.0660
     46 H          14.8058   -1.3868    5.2615 H       1  UNL1        0.0660
     47 H           7.8139   -3.0204   -5.8856 H       1  UNL1        0.2923
@<TRIPOS>BOND
     1     1     2    1
     2     2     3    1
     3     3     4   ar
     4     4     5   ar
     5     5     6   ar
     6     6     7   ar
     7     7     8   ar
     8     3     8   ar
     9     7     9    1
    10     9    10    2
    11    10    11    1
    12    11    12    2
    13    11    13    1
    14    13    14    1
    15    14    15    2
    16    14    16    1
    17    16    17    2
    18    17    18    1
    19    18    19   ar
    20    19    20   ar
    21    20    21   ar
    22    21    22   ar
    23    22    23   ar
    24    18    23   ar
    25    21    24    1
    26    20    25    1
    27    25    26    1
    28     4    27    1
    29     1    28    1
    30     1    29    1
    31     1    30    1
    32     5    31    1
    33     6    32    1
    34     8    33    1
    35     9    34    1
    36    10    35    1
    37    13    36    1
    38    13    37    1
    39    16    38    1
    40    17    39    1
    41    19    40    1
    42    22    41    1
    43    23    42    1
    44    24    43    1
    45    26    44    1
    46    26    45    1
    47    26    46    1
    48    27    47    1
