@<TRIPOS>MOLECULE
*****
 113 119 0 0 0
SMALL
GASTEIGER

@<TRIPOS>ATOM
      1 C           0.4922   -1.1045   -0.1500 C.3     1  UNL1       -0.0399
      2 C           2.0010   -1.1431   -0.1161 C.2     1  UNL1       -0.0288
      3 C           2.8824   -0.0919   -0.1785 C.2     1  UNL1       -0.0114
      4 C           2.5804    1.3025   -0.7140 C.3     1  UNL1        0.1831
      5 C           2.7691    2.5553    0.2146 C.2     1  UNL1        0.1866
      6 O           3.2209    3.5751   -0.3413 O.2     1  UNL1       -0.2924
      7 C           2.3260    2.6389    1.7442 C.3     1  UNL1        0.0662
      8 C           2.5210    4.1925    2.1045 C.3     1  UNL1        0.0704
      9 C           2.6072    4.5065    3.6144 C.3     1  UNL1        0.0043
     10 C           3.8616    3.7834    3.9676 C.3     1  UNL1        0.1035
     11 C           3.6581    2.2786    4.2364 C.3     1  UNL1        0.1696
     12 C           3.2397    1.6792    2.7978 C.3     1  UNL1        0.0580
     13 C           2.9031    0.1578    2.9532 C.3     1  UNL1        0.1404
     14 C           3.7619   -0.8572    1.9874 C.3     1  UNL1        0.1157
     15 C           4.2677   -0.2865    0.5475 C.3     1  UNL1        0.0227
     16 C           5.2278    0.9607    0.5120 C.3     1  UNL1       -0.0532
     17 C           5.3337   -1.2814   -0.0709 C.3     1  UNL1       -0.0532
     18 C           2.9890   -2.2561    1.7706 C.3     1  UNL1        0.0215
     19 C           2.5700   -2.4824    0.3056 C.3     1  UNL1        0.1271
     20 O           1.7169   -3.6034    0.0120 O.3     1  UNL1       -0.4550
     21 C           2.2083   -4.8174    0.3166 C.2     1  UNL1        0.3388
     22 O           1.9179   -5.3383    1.3873 O.2     1  UNL1       -0.2478
     23 C           3.1518   -5.5328   -0.7076 C.3     1  UNL1        0.1740
     24 C           2.5214   -6.6956   -1.5656 C.3     1  UNL1        0.0850
     25 C           1.6572   -7.6367   -0.7419 C.ar    1  UNL1       -0.0242
     26 C           0.2813   -7.3922   -0.5950 C.ar    1  UNL1       -0.0567
     27 C          -0.5027   -8.2050    0.2210 C.ar    1  UNL1       -0.0614
     28 C           0.0765   -9.2741    0.8988 C.ar    1  UNL1       -0.0617
     29 C           1.4365   -9.5409    0.7492 C.ar    1  UNL1       -0.0614
     30 C           2.2252   -8.7295   -0.0693 C.ar    1  UNL1       -0.0567
     31 N           1.8381   -6.4273   -2.8453 N.am    1  UNL1       -0.3015
     32 C           1.6990   -5.2123   -3.4618 C.2     1  UNL1        0.2446
     33 O           2.1255   -4.1684   -2.9926 O.2     1  UNL1       -0.2702
     34 C           0.9395   -5.1839   -4.7385 C.ar    1  UNL1        0.0367
     35 C           0.1091   -4.0806   -4.9527 C.ar    1  UNL1       -0.0496
     36 C          -0.6159   -3.9641   -6.1381 C.ar    1  UNL1       -0.0610
     37 C          -0.4975   -4.9458   -7.1202 C.ar    1  UNL1       -0.0617
     38 C           0.3440   -6.0429   -6.9196 C.ar    1  UNL1       -0.0610
     39 C           1.0660   -6.1671   -5.7232 C.ar    1  UNL1       -0.0496
     40 O           4.0532   -4.7348   -1.4653 O.3     1  UNL1       -0.3786
     41 O           4.9519   -1.1529    2.7596 O.3     1  UNL1       -0.3839
     42 O           1.4931   -0.1957    3.1064 O.3     1  UNL1       -0.4545
     43 C           0.7512    0.4513    4.0629 C.2     1  UNL1        0.3395
     44 O           0.5410    1.6459    4.0732 O.2     1  UNL1       -0.2449
     45 C           0.2515   -0.4039    5.1650 C.ar    1  UNL1        0.0590
     46 C          -0.5342    0.2122    6.1589 C.ar    1  UNL1       -0.0478
     47 C          -0.9623   -0.5105    7.2711 C.ar    1  UNL1       -0.0610
     48 C          -0.6017   -1.8479    7.3997 C.ar    1  UNL1       -0.0617
     49 C           0.1793   -2.4594    6.4175 C.ar    1  UNL1       -0.0610
     50 C           0.6065   -1.7431    5.2986 C.ar    1  UNL1       -0.0478
     51 C           5.1473    2.5725    4.8146 C.3     1  UNL1        0.0909
     52 O           4.5916    3.9230    5.2107 O.3     1  UNL1       -0.3684
     53 O           2.7521    1.7897    5.2820 O.3     1  UNL1       -0.4528
     54 C           3.1559    1.7448    6.5810 C.2     1  UNL1        0.3046
     55 O           2.8628    2.5966    7.4003 O.2     1  UNL1       -0.2511
     56 C           3.8815    0.4631    6.9652 C.3     1  UNL1        0.0333
     57 O           1.5580    5.0411    1.4854 O.3     1  UNL1       -0.3907
     58 C           0.8063    2.4241    1.6050 C.3     1  UNL1       -0.0498
     59 O           1.3036    1.3771   -1.3800 O.3     1  UNL1       -0.4493
     60 C           1.2636    0.9047   -2.6644 C.2     1  UNL1        0.3049
     61 O           2.2326    0.5522   -3.3230 O.2     1  UNL1       -0.2511
     62 C          -0.1559    0.7431   -3.1439 C.3     1  UNL1        0.0333
     63 H           0.0453   -0.3506   -0.7806 H       1  UNL1        0.0276
     64 H           0.1290   -0.9145    0.8661 H       1  UNL1        0.0276
     65 H           0.0540   -2.0527   -0.4727 H       1  UNL1        0.0276
     66 H           3.3480    1.4688   -1.4855 H       1  UNL1        0.0864
     67 H           3.4783    4.5248    1.6766 H       1  UNL1        0.0604
     68 H           1.7175    4.1687    4.1542 H       1  UNL1        0.0317
     69 H           2.6992    5.5866    3.7684 H       1  UNL1        0.0317
     70 H           4.6053    4.0239    3.1854 H       1  UNL1        0.0638
     71 H           4.2340    1.6884    2.3921 H       1  UNL1        0.0388
     72 H           3.2935   -0.1260    3.9391 H       1  UNL1        0.0768
     73 H           5.6001    1.1241   -0.5094 H       1  UNL1        0.0239
     74 H           6.0988    0.8113    1.1612 H       1  UNL1        0.0239
     75 H           4.8464    1.9399    0.7585 H       1  UNL1        0.0239
     76 H           5.0915   -2.3295   -0.1834 H       1  UNL1        0.0239
     77 H           6.2212   -1.3120    0.5798 H       1  UNL1        0.0239
     78 H           5.6751   -0.9340   -1.0540 H       1  UNL1        0.0239
     79 H           2.0807   -2.3051    2.3818 H       1  UNL1        0.0334
     80 H           3.5945   -3.1002    2.1168 H       1  UNL1        0.0334
     81 H           3.3979   -2.6753   -0.3538 H       1  UNL1        0.0783
     82 H           3.8376   -6.0524   -0.0209 H       1  UNL1        0.0733
     83 H           3.3807   -7.2851   -1.9196 H       1  UNL1        0.0580
     84 H          -0.1854   -6.5462   -1.0961 H       1  UNL1        0.0621
     85 H          -1.5606   -7.9887    0.3427 H       1  UNL1        0.0618
     86 H          -0.5316   -9.8922    1.5539 H       1  UNL1        0.0618
     87 H           1.8851  -10.3733    1.2856 H       1  UNL1        0.0618
     88 H           3.2871   -8.9494   -0.1596 H       1  UNL1        0.0621
     89 H           1.4189   -7.2357   -3.2887 H       1  UNL1        0.1497
     90 H           0.0291   -3.3035   -4.1952 H       1  UNL1        0.0625
     91 H          -1.2614   -3.1039   -6.2958 H       1  UNL1        0.0618
     92 H          -1.0538   -4.8466   -8.0500 H       1  UNL1        0.0618
     93 H           0.4445   -6.7903   -7.7041 H       1  UNL1        0.0618
     94 H           1.7428   -7.0087   -5.6066 H       1  UNL1        0.0625
     95 H           3.5059   -4.2976   -2.1574 H       1  UNL1        0.2106
     96 H           4.7125   -1.8177    3.4322 H       1  UNL1        0.2104
     97 H          -0.8010    1.2669    6.0828 H       1  UNL1        0.0626
     98 H          -1.5646   -0.0238    8.0379 H       1  UNL1        0.0618
     99 H          -0.9259   -2.4119    8.2700 H       1  UNL1        0.0618
    100 H           0.4616   -3.5068    6.5282 H       1  UNL1        0.0618
    101 H           1.2220   -2.2355    4.5541 H       1  UNL1        0.0626
    102 H           5.9752    2.6698    4.0994 H       1  UNL1        0.0601
    103 H           5.5244    2.0574    5.6930 H       1  UNL1        0.0601
    104 H           3.6239   -0.3597    6.2947 H       1  UNL1        0.0342
    105 H           3.5810    0.1727    7.9736 H       1  UNL1        0.0342
    106 H           4.9632    0.6021    6.9711 H       1  UNL1        0.0342
    107 H           1.8291    5.1004    0.5460 H       1  UNL1        0.2098
    108 H           0.4203    2.8901    0.6870 H       1  UNL1        0.0240
    109 H           0.2407    2.9228    2.3948 H       1  UNL1        0.0240
    110 H           0.5279    1.3749    1.5255 H       1  UNL1        0.0240
    111 H          -0.8250    1.4389   -2.6314 H       1  UNL1        0.0342
    112 H          -0.4921   -0.2830   -2.9620 H       1  UNL1        0.0342
    113 H          -0.2082    0.9461   -4.2166 H       1  UNL1        0.0342
@<TRIPOS>BOND
     1     1     2    1
     2     2     3    2
     3     3     4    1
     4     4     5    1
     5     5     6    2
     6     5     7    1
     7     7     8    1
     8     8     9    1
     9     9    10    1
    10    10    11    1
    11    11    12    1
    12     7    12    1
    13    12    13    1
    14    13    14    1
    15    14    15    1
    16     3    15    1
    17    15    16    1
    18    15    17    1
    19    14    18    1
    20    18    19    1
    21     2    19    1
    22    19    20    1
    23    20    21    1
    24    21    22    2
    25    21    23    1
    26    23    24    1
    27    24    25    1
    28    25    26   ar
    29    26    27   ar
    30    27    28   ar
    31    28    29   ar
    32    29    30   ar
    33    25    30   ar
    34    24    31    1
    35    31    32   am
    36    32    33    2
    37    32    34    1
    38    34    35   ar
    39    35    36   ar
    40    36    37   ar
    41    37    38   ar
    42    38    39   ar
    43    34    39   ar
    44    23    40    1
    45    14    41    1
    46    13    42    1
    47    42    43    1
    48    43    44    2
    49    43    45    1
    50    45    46   ar
    51    46    47   ar
    52    47    48   ar
    53    48    49   ar
    54    49    50   ar
    55    45    50   ar
    56    11    51    1
    57    51    52    1
    58    10    52    1
    59    11    53    1
    60    53    54    1
    61    54    55    2
    62    54    56    1
    63     8    57    1
    64     7    58    1
    65     4    59    1
    66    59    60    1
    67    60    61    2
    68    60    62    1
    69     1    63    1
    70     1    64    1
    71     1    65    1
    72     4    66    1
    73     8    67    1
    74     9    68    1
    75     9    69    1
    76    10    70    1
    77    12    71    1
    78    13    72    1
    79    16    73    1
    80    16    74    1
    81    16    75    1
    82    17    76    1
    83    17    77    1
    84    17    78    1
    85    18    79    1
    86    18    80    1
    87    19    81    1
    88    23    82    1
    89    24    83    1
    90    26    84    1
    91    27    85    1
    92    28    86    1
    93    29    87    1
    94    30    88    1
    95    31    89    1
    96    35    90    1
    97    36    91    1
    98    37    92    1
    99    38    93    1
   100    39    94    1
   101    40    95    1
   102    41    96    1
   103    46    97    1
   104    47    98    1
   105    48    99    1
   106    49   100    1
   107    50   101    1
   108    51   102    1
   109    51   103    1
   110    56   104    1
   111    56   105    1
   112    56   106    1
   113    57   107    1
   114    58   108    1
   115    58   109    1
   116    58   110    1
   117    62   111    1
   118    62   112    1
   119    62   113    1
