@<TRIPOS>MOLECULE
*****
 41 43 0 0 0
SMALL
GASTEIGER

@<TRIPOS>ATOM
      1 C           0.8461   -0.3080    0.0176 C.3     1  UNL1       -0.0235
      2 C           2.3349   -0.1499   -0.0466 C.ar    1  UNL1        0.0284
      3 C           3.0840    1.0187   -0.0809 C.ar    1  UNL1       -0.0080
      4 C           4.4560    0.6379   -0.0792 C.ar    1  UNL1        0.0077
      5 C           4.5085   -0.7553   -0.1688 C.ar    1  UNL1        0.0574
      6 N           3.2004   -1.2510   -0.0662 N.ar    1  UNL1       -0.2801
      7 C           2.8113   -2.6240    0.0008 C.2     1  UNL1        0.2631
      8 O           1.6575   -2.9105   -0.3156 O.2     1  UNL1       -0.2667
      9 C           3.6863   -3.7478    0.4239 C.ar    1  UNL1        0.0399
     10 C           4.6027   -3.6028    1.4741 C.ar    1  UNL1       -0.0480
     11 C           5.5025   -4.6337    1.7605 C.ar    1  UNL1       -0.0427
     12 C           5.4393   -5.8283    1.0444 C.ar    1  UNL1        0.0410
     13 C           4.4657   -6.0140    0.0638 C.ar    1  UNL1       -0.0427
     14 C           3.5858   -4.9733   -0.2466 C.ar    1  UNL1       -0.0480
     15 CL          6.5820   -7.0732    1.3625 Cl      1  UNL1       -0.0835
     16 C           5.7428   -1.4041   -0.3702 C.ar    1  UNL1       -0.0337
     17 C           6.9283   -0.6668   -0.3090 C.ar    1  UNL1       -0.0180
     18 C           6.9014    0.7082   -0.1362 C.ar    1  UNL1        0.1208
     19 C           5.6689    1.3699   -0.0560 C.ar    1  UNL1       -0.0105
     20 O           8.0015    1.5196   -0.0621 O.3     1  UNL1       -0.4951
     21 C           9.2722    0.8767   -0.0974 C.3     1  UNL1        0.0788
     22 C           2.5656    2.4331   -0.1572 C.3     1  UNL1        0.0721
     23 C           2.4350    3.1897    1.1485 C.2     1  UNL1        0.3091
     24 O           2.0114    4.3385    1.1907 O.2     1  UNL1       -0.2507
     25 O           2.8100    2.5480    2.2764 O.3     1  UNL1       -0.4804
     26 H           0.3498    0.6495    0.2006 H       1  UNL1        0.0292
     27 H           0.5593   -0.9715    0.8402 H       1  UNL1        0.0292
     28 H           0.4603   -0.7079   -0.9245 H       1  UNL1        0.0292
     29 H           4.6646   -2.6782    2.0438 H       1  UNL1        0.0626
     30 H           6.2586   -4.4914    2.5288 H       1  UNL1        0.0632
     31 H           4.3964   -6.9572   -0.4726 H       1  UNL1        0.0632
     32 H           2.8363   -5.1166   -1.0235 H       1  UNL1        0.0626
     33 H           5.8135   -2.4687   -0.5650 H       1  UNL1        0.0640
     34 H           7.8604   -1.2139   -0.4107 H       1  UNL1        0.0655
     35 H           5.6568    2.4529    0.0256 H       1  UNL1        0.0661
     36 H          10.0442    1.6491   -0.0366 H       1  UNL1        0.0660
     37 H           9.4171    0.3379   -1.0400 H       1  UNL1        0.0660
     38 H           9.3989    0.2083    0.7615 H       1  UNL1        0.0660
     39 H           1.5786    2.4339   -0.6335 H       1  UNL1        0.0427
     40 H           3.2361    3.0164   -0.8005 H       1  UNL1        0.0427
     41 H           3.1421    1.6425    2.1284 H       1  UNL1        0.2951
@<TRIPOS>BOND
     1     1     2    1
     2     2     3   ar
     3     3     4   ar
     4     4     5   ar
     5     5     6   ar
     6     2     6   ar
     7     6     7   am
     8     7     8    2
     9     7     9    1
    10     9    10   ar
    11    10    11   ar
    12    11    12   ar
    13    12    13   ar
    14    13    14   ar
    15     9    14   ar
    16    12    15    1
    17     5    16   ar
    18    16    17   ar
    19    17    18   ar
    20    18    19   ar
    21     4    19   ar
    22    18    20    1
    23    20    21    1
    24     3    22    1
    25    22    23    1
    26    23    24    2
    27    23    25    1
    28     1    26    1
    29     1    27    1
    30     1    28    1
    31    10    29    1
    32    11    30    1
    33    13    31    1
    34    14    32    1
    35    16    33    1
    36    17    34    1
    37    19    35    1
    38    21    36    1
    39    21    37    1
    40    21    38    1
    41    22    39    1
    42    22    40    1
    43    25    41    1
