@<TRIPOS>MOLECULE
*****
 111 116 0 0 0
SMALL
GASTEIGER

@<TRIPOS>ATOM
      1 C           1.0381   -0.8299   -0.7820 C.3     1  UNL1       -0.0400
      2 C           2.4781   -0.8039   -0.2983 C.2     1  UNL1       -0.0299
      3 C           3.2460    0.3031   -0.1039 C.2     1  UNL1       -0.0234
      4 C           2.8997    1.7089   -0.5220 C.3     1  UNL1        0.1356
      5 C           3.0639    2.8907    0.4750 C.2     1  UNL1        0.1745
      6 O           3.5748    3.9184   -0.0093 O.2     1  UNL1       -0.2936
      7 C           2.4996    2.8991    1.9615 C.3     1  UNL1        0.0651
      8 C           2.6152    4.4442    2.3713 C.3     1  UNL1        0.0704
      9 C           2.6741    4.7108    3.8884 C.3     1  UNL1        0.0043
     10 C           3.9381    3.9959    4.2325 C.3     1  UNL1        0.1035
     11 C           3.7488    2.4901    4.4789 C.3     1  UNL1        0.1696
     12 C           3.3541    1.9125    3.0267 C.3     1  UNL1        0.0580
     13 C           2.9925    0.3965    3.1332 C.3     1  UNL1        0.1404
     14 C           3.8147   -0.6056    2.1253 C.3     1  UNL1        0.1156
     15 C           4.5208    0.0833    0.7404 C.3     1  UNL1        0.0216
     16 C           5.4910    1.3063    0.8606 C.3     1  UNL1       -0.0532
     17 C           5.6200   -0.8588    0.0510 C.3     1  UNL1       -0.0532
     18 C           2.8834   -1.9481    1.7522 C.3     1  UNL1        0.0215
     19 C           2.9912   -2.1243    0.2360 C.3     1  UNL1        0.1271
     20 O           2.6760   -3.1434   -0.7167 O.3     1  UNL1       -0.4550
     21 C           3.0943   -4.4197   -0.5387 C.2     1  UNL1        0.3388
     22 O           2.4258   -5.1714    0.1844 O.2     1  UNL1       -0.2478
     23 C           4.2783   -4.9387   -1.4031 C.3     1  UNL1        0.1741
     24 C           5.6456   -4.7983   -0.6671 C.3     1  UNL1        0.0878
     25 C           5.6177   -5.4432    0.7139 C.ar    1  UNL1       -0.0241
     26 C           5.6950   -6.8308    0.9046 C.ar    1  UNL1       -0.0567
     27 C           5.5335   -7.3805    2.1789 C.ar    1  UNL1       -0.0614
     28 C           5.2770   -6.5562    3.2726 C.ar    1  UNL1       -0.0617
     29 C           5.2204   -5.1777    3.1023 C.ar    1  UNL1       -0.0614
     30 C           5.4142   -4.6272    1.8370 C.ar    1  UNL1       -0.0567
     31 N           6.7878   -5.2923   -1.4440 N.am    1  UNL1       -0.2712
     32 C           7.7297   -4.4833   -2.0089 C.2     1  UNL1        0.4013
     33 O           7.7284   -3.2647   -1.9313 O.2     1  UNL1       -0.2264
     34 O           8.6369   -5.2386   -2.6777 O.3     1  UNL1       -0.4447
     35 C           9.6964   -4.6248   -3.4690 C.3     1  UNL1        0.1068
     36 C          10.6852   -3.8385   -2.5998 C.3     1  UNL1       -0.0253
     37 C          10.4543   -5.7975   -4.1160 C.3     1  UNL1       -0.0253
     38 C           9.1135   -3.7550   -4.5896 C.3     1  UNL1       -0.0253
     39 O           4.0742   -6.3255   -1.7696 O.3     1  UNL1       -0.3786
     40 O           4.9317   -1.1004    2.9078 O.3     1  UNL1       -0.3839
     41 O           1.5925    0.0635    3.2716 O.3     1  UNL1       -0.4545
     42 C           0.8364    0.6822    4.2306 C.2     1  UNL1        0.3395
     43 O           0.6074    1.8766    4.2912 O.2     1  UNL1       -0.2449
     44 C           0.3288   -0.2262    5.2795 C.ar    1  UNL1        0.0590
     45 C          -0.4362    0.3410    6.3131 C.ar    1  UNL1       -0.0478
     46 C          -0.8648   -0.4399    7.3859 C.ar    1  UNL1       -0.0610
     47 C          -0.5240   -1.7867    7.4350 C.ar    1  UNL1       -0.0617
     48 C           0.2390   -2.3557    6.4160 C.ar    1  UNL1       -0.0610
     49 C           0.6680   -1.5855    5.3324 C.ar    1  UNL1       -0.0478
     50 C           5.2318    2.7778    5.0571 C.3     1  UNL1        0.0909
     51 O           4.6638    4.1145    5.4800 O.3     1  UNL1       -0.3684
     52 O           2.8389    1.9888    5.4925 O.3     1  UNL1       -0.4528
     53 C           3.2442    1.9000    6.8199 C.2     1  UNL1        0.3046
     54 O           2.9563    2.7339    7.6618 O.2     1  UNL1       -0.2511
     55 C           3.9431    0.6046    7.1351 C.3     1  UNL1        0.0333
     56 O           1.6294    5.2659    1.7532 O.3     1  UNL1       -0.3907
     57 C           1.0009    2.6178    1.7282 C.3     1  UNL1       -0.0498
     58 O           1.6151    1.7985   -1.1245 O.3     1  UNL1       -0.3799
     59 H           0.9544   -0.5301   -1.8296 H       1  UNL1        0.0276
     60 H           0.4015   -0.1923   -0.1577 H       1  UNL1        0.0276
     61 H           0.6003   -1.8315   -0.6997 H       1  UNL1        0.0276
     62 H           3.6083    1.9172   -1.3360 H       1  UNL1        0.0721
     63 H           3.5625    4.8402    1.9796 H       1  UNL1        0.0604
     64 H           1.7828    4.3389    4.4011 H       1  UNL1        0.0317
     65 H           2.7424    5.7876    4.0736 H       1  UNL1        0.0317
     66 H           4.6841    4.2613    3.4584 H       1  UNL1        0.0638
     67 H           4.3607    1.9017    2.6528 H       1  UNL1        0.0388
     68 H           3.3909    0.0825    4.1097 H       1  UNL1        0.0768
     69 H           5.9036    1.5543   -0.1292 H       1  UNL1        0.0239
     70 H           6.3284    1.0724    1.5280 H       1  UNL1        0.0239
     71 H           5.1240    2.2796    1.1487 H       1  UNL1        0.0239
     72 H           5.2789   -1.5563   -0.7141 H       1  UNL1        0.0239
     73 H           6.2077   -1.3812    0.8142 H       1  UNL1        0.0239
     74 H           6.3473   -0.2988   -0.5505 H       1  UNL1        0.0239
     75 H           1.8336   -1.8295    2.0443 H       1  UNL1        0.0334
     76 H           3.2348   -2.8338    2.2920 H       1  UNL1        0.0334
     77 H           4.0434   -2.2623    0.2285 H       1  UNL1        0.0783
     78 H           4.3068   -4.4005   -2.3562 H       1  UNL1        0.0733
     79 H           5.8126   -3.7292   -0.5239 H       1  UNL1        0.0581
     80 H           5.8638   -7.5017    0.0652 H       1  UNL1        0.0621
     81 H           5.5935   -8.4574    2.3176 H       1  UNL1        0.0618
     82 H           5.1265   -6.9886    4.2579 H       1  UNL1        0.0618
     83 H           5.0212   -4.5319    3.9521 H       1  UNL1        0.0618
     84 H           5.3855   -3.5481    1.7282 H       1  UNL1        0.0621
     85 H           6.8705   -6.2786   -1.6461 H       1  UNL1        0.1527
     86 H          11.1048   -4.4736   -1.8117 H       1  UNL1        0.0268
     87 H          10.2110   -2.9888   -2.1013 H       1  UNL1        0.0268
     88 H          11.5154   -3.4473   -3.2008 H       1  UNL1        0.0268
     89 H          10.8851   -6.4556   -3.3525 H       1  UNL1        0.0268
     90 H          11.2668   -5.4485   -4.7642 H       1  UNL1        0.0268
     91 H           9.7782   -6.4176   -4.7154 H       1  UNL1        0.0268
     92 H           8.6209   -2.8606   -4.1980 H       1  UNL1        0.0268
     93 H           8.3588   -4.3102   -5.1573 H       1  UNL1        0.0268
     94 H           9.8935   -3.4207   -5.2831 H       1  UNL1        0.0268
     95 H           3.5511   -6.7290   -1.0473 H       1  UNL1        0.2106
     96 H           4.5805   -1.6829    3.6080 H       1  UNL1        0.2104
     97 H          -0.6867    1.3993    6.2949 H       1  UNL1        0.0626
     98 H          -1.4509    0.0125    8.1828 H       1  UNL1        0.0618
     99 H          -0.8482   -2.3942    8.2778 H       1  UNL1        0.0618
    100 H           0.5089   -3.4054    6.4662 H       1  UNL1        0.0618
    101 H           1.2679   -2.0371    4.5574 H       1  UNL1        0.0626
    102 H           6.0587    2.8938    4.3449 H       1  UNL1        0.0601
    103 H           5.6048    2.2393    5.9221 H       1  UNL1        0.0601
    104 H           3.6900   -0.2039    6.4445 H       1  UNL1        0.0342
    105 H           3.6375    0.2643    8.1438 H       1  UNL1        0.0342
    106 H           5.0383    0.7188    7.1573 H       1  UNL1        0.0342
    107 H           1.9295    5.3872    0.8281 H       1  UNL1        0.2098
    108 H           0.6413    3.1074    0.8119 H       1  UNL1        0.0240
    109 H           0.3686    3.0488    2.5053 H       1  UNL1        0.0240
    110 H           0.7790    1.5588    1.5916 H       1  UNL1        0.0240
    111 H           1.6091    2.6128   -1.6598 H       1  UNL1        0.2108
@<TRIPOS>BOND
     1     1     2    1
     2     2     3    2
     3     3     4    1
     4     4     5    1
     5     5     6    2
     6     5     7    1
     7     7     8    1
     8     8     9    1
     9     9    10    1
    10    10    11    1
    11    11    12    1
    12     7    12    1
    13    12    13    1
    14    13    14    1
    15    14    15    1
    16     3    15    1
    17    15    16    1
    18    15    17    1
    19    14    18    1
    20    18    19    1
    21     2    19    1
    22    19    20    1
    23    20    21    1
    24    21    22    2
    25    21    23    1
    26    23    24    1
    27    24    25    1
    28    25    26   ar
    29    26    27   ar
    30    27    28   ar
    31    28    29   ar
    32    29    30   ar
    33    25    30   ar
    34    24    31    1
    35    31    32   am
    36    32    33    2
    37    32    34    1
    38    34    35    1
    39    35    36    1
    40    35    37    1
    41    35    38    1
    42    23    39    1
    43    14    40    1
    44    13    41    1
    45    41    42    1
    46    42    43    2
    47    42    44    1
    48    44    45   ar
    49    45    46   ar
    50    46    47   ar
    51    47    48   ar
    52    48    49   ar
    53    44    49   ar
    54    11    50    1
    55    50    51    1
    56    10    51    1
    57    11    52    1
    58    52    53    1
    59    53    54    2
    60    53    55    1
    61     8    56    1
    62     7    57    1
    63     4    58    1
    64     1    59    1
    65     1    60    1
    66     1    61    1
    67     4    62    1
    68     8    63    1
    69     9    64    1
    70     9    65    1
    71    10    66    1
    72    12    67    1
    73    13    68    1
    74    16    69    1
    75    16    70    1
    76    16    71    1
    77    17    72    1
    78    17    73    1
    79    17    74    1
    80    18    75    1
    81    18    76    1
    82    19    77    1
    83    23    78    1
    84    24    79    1
    85    26    80    1
    86    27    81    1
    87    28    82    1
    88    29    83    1
    89    30    84    1
    90    31    85    1
    91    36    86    1
    92    36    87    1
    93    36    88    1
    94    37    89    1
    95    37    90    1
    96    37    91    1
    97    38    92    1
    98    38    93    1
    99    38    94    1
   100    39    95    1
   101    40    96    1
   102    45    97    1
   103    46    98    1
   104    47    99    1
   105    48   100    1
   106    49   101    1
   107    50   102    1
   108    50   103    1
   109    55   104    1
   110    55   105    1
   111    55   106    1
   112    56   107    1
   113    57   108    1
   114    57   109    1
   115    57   110    1
   116    58   111    1
